<NUMBER OF ZONES> 284
<TOTAL OD FLOW> 2264397.8
<END OF METADATA> 

Origin	1000000
	1000000 :	0.0;	1000001 :	0.0;	1000002 :	0.0;	1000003 :	0.0;	1000004 :	6.5;	1000005 :	0.0;	1000007 :	0.0;	1000008 :	0.0;	1000009 :	0.0;	1000010 :	0.0;
	1000011 :	0.0;	1000012 :	49.7;	1000013 :	0.0;	1000014 :	0.0;	1000015 :	7.1;	1000016 :	0.0;	1000017 :	0.0;	1000018 :	4.8;	1000019 :	0.0;	1000020 :	0.0;
	1000021 :	0.0;	1000022 :	0.0;	1000023 :	17.1;	1000024 :	0.0;	1000025 :	0.0;	1000026 :	0.0;	1000027 :	0.0;	1000028 :	32.2;	1000029 :	50.3;	1000030 :	0.0;
	1000031 :	1.1;	1000032 :	0.0;	1000033 :	0.0;	1000034 :	0.0;	1000035 :	0.0;	1000036 :	2.3;	1000037 :	0.0;	1000038 :	104.9;	1000039 :	0.0;	1000040 :	0.0;
	1000041 :	15.8;	1000042 :	0.0;	1000043 :	0.0;	1000044 :	0.0;	1000045 :	209.8;	1000046 :	0.0;	1000047 :	0.0;	1000048 :	2.6;	113707 :	3.4;	114425 :	0.0;
	114430 :	0.0;	114489 :	0.0;	114588 :	1.5;	2146236900 :	3.0;	2146237252 :	5.3;	2146237358 :	45.900000000000006;	2146237363 :	28.2;	2146237366 :	15.6;	2146237373 :	13.1;	2146237375 :	4.1;
	2146237805 :	0.7;	2146237822 :	0.4;	2146237837 :	0.7;	2146237900 :	85.9;	2146237901 :	0.7;	2146237902 :	0.5;	2146237904 :	0.0;	2146237906 :	0.0;	2146237907 :	2.1;	2146237908 :	149.7;
	2146237909 :	73.8;	2146237910 :	37.4;	2146237911 :	777.2;	2146237912 :	286.40000000000003;	2146237913 :	14.5;	2146237915 :	3.0;	2146237917 :	1.3;	2146237920 :	1.0;	2146237921 :	0.5;	2146237928 :	1.8;
	2146237929 :	18.5;	2146237930 :	8.6;	2146237931 :	2.9000000000000004;	2146237932 :	113.0;	280907 :	88.6;	282361 :	0.0;	282575 :	0.0;	282586 :	528.8;	282587 :	200.9;	282599 :	0.0;
	73510 :	1.0;	73751 :	0.0;	73760 :	1.0;	73816 :	0.0;	73876 :	1.2;	73972 :	1.2;	74055 :	0.0;	74232 :	0.0;	74451 :	1.2;	74521 :	3.8;
	74723 :	1.8;	74984 :	1.8;	75006 :	3.8;	75064 :	0.0;	75131 :	0.0;	75279 :	15.7;	75318 :	8.6;	75467 :	0.0;	75533 :	6.3;	75579 :	14.5;
	75627 :	18.5;	75631 :	3.4;	75634 :	11.5;	75659 :	3.4;	75766 :	16.7;	75778 :	722.5;	75794 :	528.8;	75880 :	1.5;	75937 :	42.2;	75961 :	5.4;
	76069 :	14.5;	76072 :	2.5;	76108 :	10.2;	76138 :	23.4;	76144 :	2.5;	76153 :	15.2;	76187 :	282.6;	76243 :	820.6;	76300 :	42.2;	76316 :	42.2;
	76354 :	2.5;	76442 :	1.8;	76462 :	19.6;	76513 :	13.0;	76541 :	538.0;	76550 :	151.7;	76554 :	11.6;	76573 :	7.4;	76579 :	20.4;	76599 :	2.7;
	76604 :	200.9;	76634 :	200.9;	76655 :	2.7;	76673 :	482.90000000000003;	76712 :	538.0;	76727 :	9.4;	76732 :	538.0;	76735 :	722.5;	76759 :	3.5;	76801 :	9.4;
	76812 :	61.6;	76819 :	146.9;	76824 :	200.9;	76840 :	32.6;	76844 :	37.4;	76851 :	200.3;	76862 :	90.8;	76921 :	50.599999999999994;	76949 :	3.5;	76963 :	154.8;
	77007 :	255.60000000000002;	77022 :	24.3;	77039 :	3.5;	77056 :	61.6;	77076 :	114.4;	77104 :	76.6;	77108 :	68.3;	77110 :	56.5;	77142 :	318.2;	77166 :	64.0;
	77174 :	25.4;	77182 :	47.0;	77189 :	3.0;	77223 :	32.2;	77227 :	75.0;	77250 :	31.9;	77295 :	318.2;	77303 :	107.5;	77317 :	71.1;	77342 :	39.6;
	77377 :	3.0;	77387 :	54.7;	77398 :	238.89999999999998;	77406 :	5.3;	77433 :	25.6;	77434 :	48.1;	77450 :	91.3;	77469 :	60.0;	77481 :	412.5;	77485 :	116.2;
	77489 :	60.0;	77511 :	27.6;	77520 :	48.1;	77546 :	3.5;	77559 :	122.0;	77561 :	12.0;	77577 :	26.2;	77604 :	32.2;	77614 :	75.7;	77624 :	9.8;
	77639 :	201.2;	77669 :	15.3;	77678 :	202.6;	77688 :	9.8;	77692 :	1.2;	77700 :	3.7;	77738 :	3.9;	77742 :	42.2;	77800 :	1.4;	77809 :	0.5;
	77815 :	62.3;	77818 :	22.6;	77820 :	3.0;	77870 :	10.4;	77871 :	9.3;	77872 :	1.9;	77877 :	2.5;	77883 :	34.2;	77887 :	0.9;	77897 :	27.6;
	77910 :	66.4;	77930 :	14.2;	77931 :	29.5;	77987 :	3.7;	77989 :	1.3;	78066 :	0.9;	78070 :	3.9000000000000004;	78098 :	12.0;	78144 :	2.5999999999999996;	78187 :	0.7;
	78204 :	16.1;	78205 :	14.2;	78207 :	1.8;	78212 :	2.6;	78231 :	3.6;	78233 :	0.0;	78242 :	2.6;	78249 :	0.8;	78278 :	1.9;	78289 :	0.9;
	78300 :	3.1;	78344 :	0.0;	78360 :	0.5;	78388 :	0.4;	78425 :	0.6;	78461 :	1.6;	78467 :	0.0;	78478 :	1.6;	78487 :	1.8;	78510 :	1.7000000000000002;
	78579 :	1.1;	78679 :	0.5;	78692 :	2.1;	78703 :	2.9000000000000004;	78726 :	0.6;	78771 :	1.3;	78903 :	0.0;	78929 :	0.2;	78974 :	0.0;	79022 :	0.0;
	79047 :	0.2;	79049 :	0.0;	79060 :	0.6;	79066 :	0.0;	79079 :	0.0;	79126 :	0.0;	79169 :	0.0;	79188 :	0.0;	79203 :	0.0;	79208 :	0.7;
	79320 :	0.0;	79358 :	0.0;	79409 :	0.5;	79460 :	0.5;	79524 :	0.0;	79701 :	0.0;	79719 :	0.0;	79968 :	0.0;	80004 :	0.0;	80020 :	0.0;
	80109 :	0.0;	80264 :	0.0;	80332 :	0.0;	80833 :	0.0;	80838 :	0.0;

Origin	1000001
	1000000 :	0.0;	1000001 :	0.0;	1000002 :	0.0;	1000003 :	0.0;	1000004 :	0.0;	1000005 :	0.0;	1000007 :	0.0;	1000008 :	0.0;	1000009 :	0.0;	1000010 :	0.0;
	1000011 :	0.0;	1000012 :	48.9;	1000013 :	0.0;	1000014 :	0.0;	1000015 :	0.0;	1000016 :	0.0;	1000017 :	0.0;	1000018 :	0.0;	1000019 :	0.0;	1000020 :	0.0;
	1000021 :	0.0;	1000022 :	0.0;	1000023 :	18.7;	1000024 :	0.0;	1000025 :	0.0;	1000026 :	0.0;	1000027 :	8.1;	1000028 :	0.0;	1000029 :	0.0;	1000030 :	0.0;
	1000031 :	0.0;	1000032 :	0.0;	1000033 :	0.0;	1000034 :	0.0;	1000035 :	0.0;	1000036 :	2.2;	1000037 :	0.0;	1000038 :	0.0;	1000039 :	0.0;	1000040 :	0.0;
	1000041 :	13.4;	1000042 :	0.0;	1000043 :	0.0;	1000044 :	0.0;	1000045 :	0.0;	1000046 :	0.0;	1000047 :	0.0;	1000048 :	0.0;	113707 :	2.6;	114425 :	0.0;
	114430 :	0.0;	114489 :	0.0;	114588 :	1.8;	2146236900 :	0.0;	2146237252 :	1.9;	2146237358 :	7.199999999999999;	2146237363 :	22.7;	2146237366 :	0.0;	2146237373 :	1.5;	2146237375 :	0.0;
	2146237805 :	0.0;	2146237822 :	0.0;	2146237837 :	0.0;	2146237900 :	23.2;	2146237901 :	0.0;	2146237902 :	0.0;	2146237904 :	0.0;	2146237906 :	0.0;	2146237907 :	0.0;	2146237908 :	19.9;
	2146237909 :	18.5;	2146237910 :	9.2;	2146237911 :	1091.6;	2146237912 :	31.6;	2146237913 :	9.6;	2146237915 :	0.0;	2146237917 :	0.0;	2146237920 :	0.0;	2146237921 :	0.0;	2146237928 :	0.0;
	2146237929 :	11.5;	2146237930 :	0.0;	2146237931 :	0.0;	2146237932 :	24.0;	280907 :	7.7;	282361 :	0.0;	282575 :	0.0;	282586 :	0.0;	282587 :	261.1;	282599 :	0.0;
	73510 :	0.0;	73751 :	0.0;	73760 :	0.0;	73816 :	0.0;	73876 :	0.0;	73972 :	0.0;	74055 :	0.0;	74232 :	0.0;	74451 :	0.0;	74521 :	0.0;
	74723 :	0.0;	74984 :	0.0;	75006 :	0.0;	75064 :	0.0;	75131 :	0.0;	75279 :	1.9;	75318 :	0.0;	75467 :	0.0;	75533 :	3.9;	75579 :	9.6;
	75627 :	20.2;	75631 :	2.6;	75634 :	13.899999999999999;	75659 :	2.6;	75766 :	13.9;	75778 :	829.9;	75794 :	0.0;	75880 :	1.9;	75937 :	28.0;	75961 :	4.2;
	76069 :	9.5;	76072 :	2.2;	76108 :	8.2;	76138 :	17.7;	76144 :	2.2;	76153 :	12.0;	76187 :	31.6;	76243 :	106.80000000000001;	76300 :	28.0;	76316 :	28.0;
	76354 :	2.2;	76442 :	2.8;	76462 :	14.399999999999999;	76513 :	10.7;	76541 :	75.2;	76550 :	55.4;	76554 :	7.5;	76573 :	5.4;	76579 :	16.1;	76599 :	2.7;
	76604 :	261.1;	76634 :	261.1;	76655 :	2.4000000000000004;	76673 :	84.6;	76712 :	75.2;	76727 :	6.2;	76732 :	75.2;	76735 :	829.9;	76759 :	3.2;	76801 :	6.2;
	76812 :	16.5;	76819 :	36.599999999999994;	76824 :	261.1;	76840 :	13.700000000000001;	76844 :	9.2;	76851 :	53.0;	76862 :	25.6;	76921 :	16.700000000000003;	76949 :	3.2;	76963 :	32.5;
	77007 :	522.8;	77022 :	6.7;	77039 :	3.2;	77056 :	16.5;	77076 :	14.100000000000001;	77104 :	17.7;	77108 :	12.8;	77110 :	10.2;	77142 :	39.2;	77166 :	6.9;
	77174 :	8.4;	77182 :	5.7;	77189 :	0.0;	77223 :	3.5;	77227 :	4.2;	77250 :	3.5;	77295 :	39.2;	77303 :	18.3;	77317 :	9.0;	77342 :	5.4;
	77377 :	0.0;	77387 :	261.7;	77398 :	12.600000000000001;	77406 :	1.9;	77433 :	0.0;	77434 :	0.0;	77450 :	4.2;	77469 :	3.5;	77481 :	300.9;	77485 :	4.2;
	77489 :	3.5;	77511 :	1.4;	77520 :	0.0;	77546 :	0.0;	77559 :	8.9;	77561 :	0.0;	77577 :	0.0;	77604 :	0.0;	77614 :	0.0;	77624 :	0.0;
	77639 :	5.4;	77669 :	0.0;	77678 :	0.0;	77688 :	0.0;	77692 :	0.0;	77700 :	0.0;	77738 :	0.0;	77742 :	0.0;	77800 :	0.0;	77809 :	0.0;
	77815 :	0.0;	77818 :	0.0;	77820 :	0.0;	77870 :	0.0;	77871 :	0.0;	77872 :	0.0;	77877 :	0.0;	77883 :	0.0;	77887 :	0.0;	77897 :	0.0;
	77910 :	0.0;	77930 :	0.0;	77931 :	0.0;	77987 :	0.0;	77989 :	0.0;	78066 :	0.0;	78070 :	0.0;	78098 :	0.0;	78144 :	0.0;	78187 :	0.0;
	78204 :	0.0;	78205 :	0.0;	78207 :	0.0;	78212 :	0.0;	78231 :	0.0;	78233 :	0.0;	78242 :	0.0;	78249 :	0.0;	78278 :	0.0;	78289 :	0.0;
	78300 :	0.0;	78344 :	0.0;	78360 :	0.0;	78388 :	0.0;	78425 :	0.0;	78461 :	0.0;	78467 :	0.0;	78478 :	0.0;	78487 :	0.0;	78510 :	0.0;
	78579 :	0.0;	78679 :	0.0;	78692 :	0.0;	78703 :	0.0;	78726 :	0.0;	78771 :	0.0;	78903 :	0.0;	78929 :	0.0;	78974 :	0.0;	79022 :	0.0;
	79047 :	0.0;	79049 :	0.0;	79060 :	0.0;	79066 :	0.0;	79079 :	0.0;	79126 :	0.0;	79169 :	0.0;	79188 :	0.0;	79203 :	0.0;	79208 :	0.0;
	79320 :	0.0;	79358 :	0.0;	79409 :	0.0;	79460 :	0.0;	79524 :	0.0;	79701 :	0.0;	79719 :	0.0;	79968 :	0.0;	80004 :	0.0;	80020 :	0.0;
	80109 :	0.0;	80264 :	0.0;	80332 :	0.0;	80833 :	0.0;	80838 :	0.0;

Origin	1000002
	1000000 :	0.0;	1000001 :	0.0;	1000002 :	0.0;	1000003 :	0.0;	1000004 :	0.0;	1000005 :	0.0;	1000007 :	0.0;	1000008 :	0.0;	1000009 :	0.0;	1000010 :	0.0;
	1000011 :	0.2;	1000012 :	32.5;	1000013 :	0.0;	1000014 :	0.0;	1000015 :	0.1;	1000016 :	0.0;	1000017 :	0.0;	1000018 :	1.5;	1000019 :	0.0;	1000020 :	0.0;
	1000021 :	0.0;	1000022 :	0.0;	1000023 :	16.7;	1000024 :	0.0;	1000025 :	0.0;	1000026 :	0.0;	1000027 :	4.7;	1000028 :	0.0;	1000029 :	0.0;	1000030 :	0.0;
	1000031 :	0.0;	1000032 :	0.0;	1000033 :	0.0;	1000034 :	0.0;	1000035 :	0.0;	1000036 :	1.2;	1000037 :	0.0;	1000038 :	0.0;	1000039 :	0.0;	1000040 :	0.0;
	1000041 :	10.5;	1000042 :	0.0;	1000043 :	0.0;	1000044 :	0.0;	1000045 :	0.0;	1000046 :	0.0;	1000047 :	0.0;	1000048 :	0.0;	113707 :	1.5;	114425 :	0.0;
	114430 :	0.0;	114489 :	0.0;	114588 :	1.9;	2146236900 :	0.1;	2146237252 :	0.0;	2146237358 :	25.3;	2146237363 :	11.5;	2146237366 :	15.8;	2146237373 :	6.6;	2146237375 :	69.4;
	2146237805 :	0.1;	2146237822 :	0.1;	2146237837 :	0.1;	2146237900 :	15.5;	2146237901 :	0.0;	2146237902 :	0.1;	2146237904 :	0.0;	2146237906 :	0.0;	2146237907 :	0.6;	2146237908 :	50.3;
	2146237909 :	17.5;	2146237910 :	6.4;	2146237911 :	934.8;	2146237912 :	0.0;	2146237913 :	5.699999999999999;	2146237915 :	0.1;	2146237917 :	0.3;	2146237920 :	0.4;	2146237921 :	0.3;	2146237928 :	0.0;
	2146237929 :	7.300000000000001;	2146237930 :	27.6;	2146237931 :	0.6;	2146237932 :	25.9;	280907 :	56.5;	282361 :	0.0;	282575 :	0.0;	282586 :	0.0;	282587 :	0.6;	282599 :	0.0;
	73510 :	0.0;	73751 :	0.0;	73760 :	0.0;	73816 :	0.0;	73876 :	0.0;	73972 :	0.0;	74055 :	0.0;	74232 :	0.0;	74451 :	0.0;	74521 :	0.0;
	74723 :	0.0;	74984 :	0.0;	75006 :	0.0;	75064 :	0.0;	75131 :	0.0;	75279 :	0.1;	75318 :	0.0;	75467 :	0.0;	75533 :	2.3;	75579 :	5.699999999999999;
	75627 :	10.3;	75631 :	1.5;	75634 :	7.0;	75659 :	1.5;	75766 :	6.8;	75778 :	55.9;	75794 :	0.0;	75880 :	0.1;	75937 :	16.6;	75961 :	2.0;
	76069 :	5.1;	76072 :	1.6;	76108 :	3.5;	76138 :	10.1;	76144 :	1.6;	76153 :	6.7;	76187 :	0.0;	76243 :	44.6;	76300 :	16.6;	76316 :	16.6;
	76354 :	1.6;	76442 :	2.5;	76462 :	7.7;	76513 :	4.8;	76541 :	44.6;	76550 :	29.3;	76554 :	4.7;	76573 :	3.6;	76579 :	8.4;	76599 :	2.1;
	76604 :	0.6;	76634 :	0.6;	76655 :	1.9000000000000001;	76673 :	32.7;	76712 :	44.6;	76727 :	4.2;	76732 :	44.6;	76735 :	55.9;	76759 :	2.1;	76801 :	4.2;
	76812 :	11.2;	76819 :	19.1;	76824 :	0.6;	76840 :	9.2;	76844 :	6.4;	76851 :	32.7;	76862 :	20.0;	76921 :	16.799999999999997;	76949 :	2.1;	76963 :	32.4;
	77007 :	879.5;	77022 :	4.3;	77039 :	2.1;	77056 :	11.2;	77076 :	22.6;	77104 :	30.3;	77108 :	23.799999999999997;	77110 :	13.600000000000001;	77142 :	154.1;	77166 :	12.4;
	77174 :	11.2;	77182 :	25.1;	77189 :	0.0;	77223 :	9.3;	77227 :	61.300000000000004;	77250 :	12.7;	77295 :	154.1;	77303 :	32.2;	77317 :	21.1;	77342 :	19.8;
	77377 :	0.1;	77387 :	878.9;	77398 :	172.20000000000002;	77406 :	0.0;	77433 :	24.1;	77434 :	77.5;	77450 :	146.8;	77469 :	36.2;	77481 :	1494.1;	77485 :	101.2;
	77489 :	36.2;	77511 :	17.400000000000002;	77520 :	77.5;	77546 :	0.0;	77559 :	74.2;	77561 :	301.7;	77577 :	24.2;	77604 :	57.8;	77614 :	236.9;	77624 :	39.6;
	77639 :	158.7;	77669 :	61.2;	77678 :	199.2;	77688 :	39.6;	77692 :	0.2;	77700 :	0.2;	77738 :	0.30000000000000004;	77742 :	167.6;	77800 :	0.2;	77809 :	0.0;
	77815 :	146.8;	77818 :	40.8;	77820 :	0.1;	77870 :	39.5;	77871 :	27.7;	77872 :	0.2;	77877 :	0.4;	77883 :	79.9;	77887 :	0.2;	77897 :	159.4;
	77910 :	216.2;	77930 :	69.3;	77931 :	70.3;	77987 :	0.6;	77989 :	0.2;	78066 :	0.2;	78070 :	0.6000000000000001;	78098 :	301.7;	78144 :	0.4;	78187 :	0.1;
	78204 :	1.2;	78205 :	69.3;	78207 :	0.30000000000000004;	78212 :	0.4;	78231 :	0.8999999999999999;	78233 :	0.0;	78242 :	0.5;	78249 :	0.2;	78278 :	0.3;	78289 :	0.2;
	78300 :	0.6;	78344 :	0.0;	78360 :	0.0;	78388 :	0.1;	78425 :	0.1;	78461 :	0.3;	78467 :	0.0;	78478 :	0.3;	78487 :	0.30000000000000004;	78510 :	0.30000000000000004;
	78579 :	0.2;	78679 :	0.1;	78692 :	0.6;	78703 :	0.6;	78726 :	0.1;	78771 :	0.3;	78903 :	0.0;	78929 :	0.0;	78974 :	0.0;	79022 :	0.0;
	79047 :	0.0;	79049 :	0.0;	79060 :	0.1;	79066 :	0.0;	79079 :	0.0;	79126 :	0.0;	79169 :	0.0;	79188 :	0.0;	79203 :	0.0;	79208 :	0.3;
	79320 :	0.0;	79358 :	0.0;	79409 :	0.3;	79460 :	0.3;	79524 :	0.0;	79701 :	0.0;	79719 :	0.0;	79968 :	0.0;	80004 :	0.0;	80020 :	0.0;
	80109 :	0.0;	80264 :	0.0;	80332 :	0.0;	80833 :	0.0;	80838 :	0.0;

Origin	1000003
	1000000 :	8.8;	1000001 :	0.0;	1000002 :	0.0;	1000003 :	0.0;	1000004 :	0.0;	1000005 :	292.9;	1000007 :	5.2;	1000008 :	0.0;	1000009 :	0.0;	1000010 :	0.0;
	1000011 :	0.0;	1000012 :	0.0;	1000013 :	0.0;	1000014 :	0.0;	1000015 :	0.0;	1000016 :	17.1;	1000017 :	60.9;	1000018 :	0.0;	1000019 :	72.3;	1000020 :	0.0;
	1000021 :	0.0;	1000022 :	0.0;	1000023 :	0.0;	1000024 :	2.4;	1000025 :	0.0;	1000026 :	0.0;	1000027 :	0.0;	1000028 :	279.3;	1000029 :	90.8;	1000030 :	0.0;
	1000031 :	0.0;	1000032 :	0.0;	1000033 :	0.0;	1000034 :	0.0;	1000035 :	0.0;	1000036 :	0.0;	1000037 :	0.0;	1000038 :	86.4;	1000039 :	0.0;	1000040 :	0.0;
	1000041 :	0.0;	1000042 :	0.0;	1000043 :	0.0;	1000044 :	0.0;	1000045 :	74.7;	1000046 :	0.0;	1000047 :	0.0;	1000048 :	0.0;	113707 :	0.0;	114425 :	0.0;
	114430 :	0.0;	114489 :	0.1;	114588 :	0.0;	2146236900 :	0.0;	2146237252 :	0.0;	2146237358 :	0.0;	2146237363 :	0.0;	2146237366 :	0.0;	2146237373 :	0.3;	2146237375 :	0.3;
	2146237805 :	0.0;	2146237822 :	0.0;	2146237837 :	0.0;	2146237900 :	0.0;	2146237901 :	0.0;	2146237902 :	0.0;	2146237904 :	0.2;	2146237906 :	0.2;	2146237907 :	0.4;	2146237908 :	1.3;
	2146237909 :	1.2;	2146237910 :	0.0;	2146237911 :	3.1;	2146237912 :	20.2;	2146237913 :	0.0;	2146237915 :	0.0;	2146237917 :	0.2;	2146237920 :	0.0;	2146237921 :	0.0;	2146237928 :	0.0;
	2146237929 :	0.0;	2146237930 :	0.0;	2146237931 :	0.0;	2146237932 :	2.2;	280907 :	0.0;	282361 :	0.0;	282575 :	19.9;	282586 :	1.7;	282587 :	0.7;	282599 :	0.0;
	73510 :	5.6;	73751 :	13.0;	73760 :	5.6;	73816 :	13.0;	73876 :	113.7;	73972 :	113.7;	74055 :	0.0;	74232 :	0.0;	74451 :	113.7;	74521 :	13.0;
	74723 :	0.0;	74984 :	0.0;	75006 :	13.0;	75064 :	6.9;	75131 :	6.9;	75279 :	31.1;	75318 :	11.7;	75467 :	3.9;	75533 :	0.0;	75579 :	0.0;
	75627 :	0.0;	75631 :	0.0;	75634 :	0.0;	75659 :	0.0;	75766 :	6.4;	75778 :	6.0;	75794 :	1.7;	75880 :	6.4;	75937 :	6.6;	75961 :	0.0;
	76069 :	0.0;	76072 :	0.0;	76108 :	0.0;	76138 :	0.0;	76144 :	0.0;	76153 :	0.0;	76187 :	3.3;	76243 :	6.4;	76300 :	6.6;	76316 :	6.6;
	76354 :	0.0;	76442 :	0.0;	76462 :	0.0;	76513 :	0.0;	76541 :	3.1;	76550 :	11.2;	76554 :	0.0;	76573 :	0.0;	76579 :	0.0;	76599 :	0.0;
	76604 :	0.7;	76634 :	0.7;	76655 :	0.0;	76673 :	7.8999999999999995;	76712 :	3.1;	76727 :	0.0;	76732 :	3.1;	76735 :	2.1;	76759 :	0.0;	76801 :	0.0;
	76812 :	0.0;	76819 :	4.6;	76824 :	0.7;	76840 :	0.0;	76844 :	0.0;	76851 :	4.6;	76862 :	0.0;	76921 :	0.0;	76949 :	0.0;	76963 :	0.0;
	77007 :	1.7;	77022 :	0.0;	77039 :	0.0;	77056 :	0.0;	77076 :	0.0;	77104 :	0.0;	77108 :	2.3;	77110 :	0.0;	77142 :	2.1;	77166 :	0.0;
	77174 :	0.0;	77182 :	0.0;	77189 :	0.0;	77223 :	0.0;	77227 :	0.0;	77250 :	1.1;	77295 :	2.1;	77303 :	3.3;	77317 :	2.1;	77342 :	0.0;
	77377 :	0.0;	77387 :	1.0;	77398 :	3.8;	77406 :	0.0;	77433 :	0.0;	77434 :	0.9;	77450 :	0.0;	77469 :	2.2;	77481 :	4.9;	77485 :	0.0;
	77489 :	2.2;	77511 :	0.0;	77520 :	0.9;	77546 :	0.0;	77559 :	2.2;	77561 :	0.9;	77577 :	0.0;	77604 :	0.9;	77614 :	1.8;	77624 :	0.9;
	77639 :	3.5;	77669 :	0.0;	77678 :	4.4;	77688 :	0.9;	77692 :	0.0;	77700 :	0.0;	77738 :	0.0;	77742 :	0.9;	77800 :	0.0;	77809 :	0.0;
	77815 :	1.8;	77818 :	0.0;	77820 :	0.0;	77870 :	0.0;	77871 :	0.0;	77872 :	0.0;	77877 :	0.0;	77883 :	0.9;	77887 :	0.0;	77897 :	0.9;
	77910 :	2.1;	77930 :	0.9;	77931 :	0.9;	77987 :	0.0;	77989 :	0.0;	78066 :	0.0;	78070 :	0.0;	78098 :	0.9;	78144 :	0.0;	78187 :	0.0;
	78204 :	0.1;	78205 :	0.9;	78207 :	0.0;	78212 :	0.0;	78231 :	0.6000000000000001;	78233 :	0.6;	78242 :	0.0;	78249 :	0.7;	78278 :	0.0;	78289 :	0.0;
	78300 :	0.0;	78344 :	0.6;	78360 :	0.0;	78388 :	0.0;	78425 :	0.0;	78461 :	0.0;	78467 :	0.6;	78478 :	0.0;	78487 :	0.0;	78510 :	0.0;
	78579 :	0.0;	78679 :	0.0;	78692 :	0.4;	78703 :	0.0;	78726 :	0.0;	78771 :	0.0;	78903 :	0.0;	78929 :	0.0;	78974 :	0.0;	79022 :	0.0;
	79047 :	0.0;	79049 :	0.0;	79060 :	0.0;	79066 :	0.0;	79079 :	0.0;	79126 :	0.0;	79169 :	0.0;	79188 :	0.0;	79203 :	0.0;	79208 :	0.0;
	79320 :	0.30000000000000004;	79358 :	0.30000000000000004;	79409 :	0.0;	79460 :	0.0;	79524 :	0.0;	79701 :	0.0;	79719 :	0.0;	79968 :	0.0;	80004 :	0.0;	80020 :	0.0;
	80109 :	0.0;	80264 :	0.0;	80332 :	0.0;	80833 :	0.0;	80838 :	0.0;

Origin	1000004
	1000000 :	27.8;	1000001 :	0.0;	1000002 :	0.0;	1000003 :	0.0;	1000004 :	0.0;	1000005 :	2.8;	1000007 :	1.4;	1000008 :	0.0;	1000009 :	0.0;	1000010 :	0.0;
	1000011 :	0.0;	1000012 :	0.0;	1000013 :	0.0;	1000014 :	0.0;	1000015 :	0.0;	1000016 :	76.0;	1000017 :	230.1;	1000018 :	0.0;	1000019 :	219.2;	1000020 :	0.0;
	1000021 :	0.0;	1000022 :	0.0;	1000023 :	0.0;	1000024 :	13.0;	1000025 :	0.0;	1000026 :	0.0;	1000027 :	0.0;	1000028 :	0.0;	1000029 :	0.0;	1000030 :	0.0;
	1000031 :	0.0;	1000032 :	0.0;	1000033 :	0.0;	1000034 :	0.0;	1000035 :	0.0;	1000036 :	0.0;	1000037 :	0.0;	1000038 :	0.0;	1000039 :	0.0;	1000040 :	0.0;
	1000041 :	0.0;	1000042 :	0.0;	1000043 :	0.0;	1000044 :	0.0;	1000045 :	192.3;	1000046 :	0.0;	1000047 :	0.0;	1000048 :	0.0;	113707 :	0.0;	114425 :	0.0;
	114430 :	0.0;	114489 :	0.1;	114588 :	0.0;	2146236900 :	0.0;	2146237252 :	0.0;	2146237358 :	0.0;	2146237363 :	0.0;	2146237366 :	0.0;	2146237373 :	0.0;	2146237375 :	0.1;
	2146237805 :	0.0;	2146237822 :	0.0;	2146237837 :	0.0;	2146237900 :	0.0;	2146237901 :	0.0;	2146237902 :	0.0;	2146237904 :	0.1;	2146237906 :	0.1;	2146237907 :	0.2;	2146237908 :	0.0;
	2146237909 :	0.0;	2146237910 :	0.0;	2146237911 :	6.1;	2146237912 :	389.40000000000003;	2146237913 :	0.0;	2146237915 :	0.0;	2146237917 :	0.2;	2146237920 :	0.0;	2146237921 :	0.0;	2146237928 :	312.0;
	2146237929 :	0.0;	2146237930 :	0.0;	2146237931 :	0.1;	2146237932 :	0.0;	280907 :	0.0;	282361 :	0.0;	282575 :	41.3;	282586 :	5.4;	282587 :	2.0;	282599 :	0.0;
	73510 :	0.0;	73751 :	10.2;	73760 :	0.0;	73816 :	10.2;	73876 :	1.0;	73972 :	1.0;	74055 :	4.2;	74232 :	4.2;	74451 :	1.0;	74521 :	346.6;
	74723 :	316.2;	74984 :	312.0;	75006 :	346.6;	75064 :	31.1;	75131 :	31.1;	75279 :	1094.7;	75318 :	319.4;	75467 :	32.7;	75533 :	0.0;	75579 :	0.0;
	75627 :	0.0;	75631 :	0.0;	75634 :	0.0;	75659 :	0.0;	75766 :	116.7;	75778 :	38.5;	75794 :	5.4;	75880 :	116.7;	75937 :	2.2;	75961 :	0.0;
	76069 :	0.0;	76072 :	0.0;	76108 :	0.0;	76138 :	0.0;	76144 :	0.0;	76153 :	0.0;	76187 :	10.1;	76243 :	18.1;	76300 :	2.2;	76316 :	2.2;
	76354 :	0.0;	76442 :	0.0;	76462 :	0.0;	76513 :	0.0;	76541 :	8.0;	76550 :	2.2;	76554 :	0.0;	76573 :	0.0;	76579 :	0.0;	76599 :	0.0;
	76604 :	2.0;	76634 :	2.0;	76655 :	0.0;	76673 :	10.1;	76712 :	8.0;	76727 :	0.0;	76732 :	8.0;	76735 :	5.8;	76759 :	0.0;	76801 :	0.0;
	76812 :	0.0;	76819 :	0.0;	76824 :	2.0;	76840 :	0.0;	76844 :	0.0;	76851 :	0.0;	76862 :	0.0;	76921 :	0.0;	76949 :	0.0;	76963 :	0.0;
	77007 :	2.3;	77022 :	0.0;	77039 :	0.0;	77056 :	0.0;	77076 :	0.0;	77104 :	0.0;	77108 :	0.0;	77110 :	0.0;	77142 :	0.6;	77166 :	0.0;
	77174 :	0.0;	77182 :	0.0;	77189 :	0.0;	77223 :	0.0;	77227 :	0.0;	77250 :	0.0;	77295 :	0.6;	77303 :	0.0;	77317 :	0.0;	77342 :	0.0;
	77377 :	0.0;	77387 :	0.3;	77398 :	0.0;	77406 :	0.0;	77433 :	0.0;	77434 :	0.2;	77450 :	0.0;	77469 :	0.0;	77481 :	1.4;	77485 :	0.0;
	77489 :	0.0;	77511 :	0.0;	77520 :	0.2;	77546 :	0.0;	77559 :	0.0;	77561 :	0.2;	77577 :	0.0;	77604 :	0.0;	77614 :	0.5;	77624 :	0.0;
	77639 :	0.0;	77669 :	0.0;	77678 :	0.2;	77688 :	0.0;	77692 :	0.0;	77700 :	0.0;	77738 :	0.0;	77742 :	0.0;	77800 :	0.0;	77809 :	0.0;
	77815 :	0.6000000000000001;	77818 :	0.0;	77820 :	0.0;	77870 :	0.0;	77871 :	0.0;	77872 :	0.0;	77877 :	0.0;	77883 :	0.0;	77887 :	0.0;	77897 :	0.3;
	77910 :	0.7000000000000001;	77930 :	0.4;	77931 :	0.4;	77987 :	0.0;	77989 :	0.0;	78066 :	0.0;	78070 :	0.0;	78098 :	0.2;	78144 :	0.0;	78187 :	0.0;
	78204 :	0.0;	78205 :	0.4;	78207 :	0.0;	78212 :	0.0;	78231 :	0.4;	78233 :	0.1;	78242 :	0.0;	78249 :	0.1;	78278 :	0.0;	78289 :	0.0;
	78300 :	0.0;	78344 :	0.1;	78360 :	0.0;	78388 :	0.0;	78425 :	0.0;	78461 :	0.0;	78467 :	0.1;	78478 :	0.0;	78487 :	0.0;	78510 :	0.0;
	78579 :	0.0;	78679 :	0.0;	78692 :	0.2;	78703 :	0.1;	78726 :	0.0;	78771 :	0.1;	78903 :	0.0;	78929 :	0.0;	78974 :	0.0;	79022 :	0.0;
	79047 :	0.0;	79049 :	0.0;	79060 :	0.0;	79066 :	0.0;	79079 :	0.0;	79126 :	0.0;	79169 :	0.0;	79188 :	0.0;	79203 :	0.0;	79208 :	0.0;
	79320 :	0.2;	79358 :	0.2;	79409 :	0.0;	79460 :	0.0;	79524 :	0.0;	79701 :	0.0;	79719 :	0.0;	79968 :	0.0;	80004 :	0.0;	80020 :	0.0;
	80109 :	0.0;	80264 :	0.0;	80332 :	0.0;	80833 :	0.0;	80838 :	0.0;

Origin	1000005
	1000000 :	0.0;	1000001 :	0.0;	1000002 :	0.0;	1000003 :	278.6;	1000004 :	3.0;	1000005 :	0.0;	1000007 :	0.0;	1000008 :	0.0;	1000009 :	0.0;	1000010 :	0.0;
	1000011 :	0.0;	1000012 :	20.0;	1000013 :	0.0;	1000014 :	0.0;	1000015 :	2.0;	1000016 :	112.2;	1000017 :	369.1;	1000018 :	8.7;	1000019 :	511.3;	1000020 :	0.0;
	1000021 :	0.0;	1000022 :	0.0;	1000023 :	0.0;	1000024 :	0.0;	1000025 :	0.0;	1000026 :	0.0;	1000027 :	0.0;	1000028 :	77.5;	1000029 :	0.0;	1000030 :	0.0;
	1000031 :	22.6;	1000032 :	0.0;	1000033 :	0.0;	1000034 :	0.0;	1000035 :	0.0;	1000036 :	0.4;	1000037 :	0.0;	1000038 :	64.8;	1000039 :	0.0;	1000040 :	154.4;
	1000041 :	19.1;	1000042 :	0.0;	1000043 :	0.0;	1000044 :	0.0;	1000045 :	1100.1;	1000046 :	0.0;	1000047 :	0.0;	1000048 :	0.0;	113707 :	0.0;	114425 :	0.30000000000000004;
	114430 :	0.3;	114489 :	0.3;	114588 :	1.0;	2146236900 :	1.5;	2146237252 :	1.0;	2146237358 :	5.0;	2146237363 :	15.9;	2146237366 :	1.5;	2146237373 :	0.9;	2146237375 :	1.9;
	2146237805 :	0.7;	2146237822 :	0.5;	2146237837 :	0.5;	2146237900 :	7.800000000000001;	2146237901 :	0.5;	2146237902 :	0.6;	2146237904 :	1.0;	2146237906 :	1.0;	2146237907 :	1.1;	2146237908 :	8.7;
	2146237909 :	10.0;	2146237910 :	4.8;	2146237911 :	49.800000000000004;	2146237912 :	314.2;	2146237913 :	0.0;	2146237915 :	0.9;	2146237917 :	1.8;	2146237920 :	0.6;	2146237921 :	0.6;	2146237928 :	91.5;
	2146237929 :	12.1;	2146237930 :	4.3;	2146237931 :	1.8;	2146237932 :	12.6;	280907 :	16.6;	282361 :	0.0;	282575 :	472.8;	282586 :	47.8;	282587 :	23.3;	282599 :	0.0;
	73510 :	16.0;	73751 :	184.3;	73760 :	16.0;	73816 :	184.3;	73876 :	337.7;	73972 :	337.7;	74055 :	263.8;	74232 :	263.8;	74451 :	337.7;	74521 :	41.6;
	74723 :	355.3;	74984 :	91.5;	75006 :	41.6;	75064 :	288.5;	75131 :	288.5;	75279 :	173.8;	75318 :	30.6;	75467 :	203.7;	75533 :	0.0;	75579 :	0.0;
	75627 :	22.3;	75631 :	0.0;	75634 :	12.0;	75659 :	0.0;	75766 :	20.4;	75778 :	240.89999999999998;	75794 :	47.8;	75880 :	10.1;	75937 :	19.8;	75961 :	3.4;
	76069 :	11.4;	76072 :	2.0;	76108 :	8.4;	76138 :	10.3;	76144 :	2.0;	76153 :	10.3;	76187 :	68.9;	76243 :	128.60000000000002;	76300 :	19.8;	76316 :	19.8;
	76354 :	2.0;	76442 :	1.6;	76462 :	12.5;	76513 :	5.6;	76541 :	59.7;	76550 :	30.6;	76554 :	10.0;	76573 :	2.9;	76579 :	8.5;	76599 :	2.2;
	76604 :	23.3;	76634 :	23.3;	76655 :	2.1;	76673 :	86.30000000000001;	76712 :	59.7;	76727 :	4.1;	76732 :	59.7;	76735 :	37.2;	76759 :	2.0;	76801 :	4.1;
	76812 :	5.4;	76819 :	15.600000000000001;	76824 :	23.3;	76840 :	6.5;	76844 :	4.8;	76851 :	17.4;	76862 :	6.6;	76921 :	7.6;	76949 :	2.0;	76963 :	9.5;
	77007 :	35.9;	77022 :	2.4;	77039 :	2.0;	77056 :	5.4;	77076 :	5.5;	77104 :	10.2;	77108 :	8.4;	77110 :	6.4;	77142 :	11.7;	77166 :	2.9;
	77174 :	4.0;	77182 :	2.6;	77189 :	1.8;	77223 :	4.0;	77227 :	14.6;	77250 :	3.2;	77295 :	11.7;	77303 :	11.0;	77317 :	5.800000000000001;	77342 :	2.2;
	77377 :	0.9;	77387 :	12.6;	77398 :	13.1;	77406 :	1.0;	77433 :	4.3;	77434 :	2.9;	77450 :	26.8;	77469 :	6.5;	77481 :	37.8;	77485 :	20.4;
	77489 :	6.5;	77511 :	4.5;	77520 :	2.9;	77546 :	2.1;	77559 :	10.1;	77561 :	9.7;	77577 :	4.8;	77604 :	3.6999999999999997;	77614 :	6.699999999999999;	77624 :	2.3;
	77639 :	11.0;	77669 :	8.0;	77678 :	14.0;	77688 :	2.3;	77692 :	0.9;	77700 :	2.2;	77738 :	2.3;	77742 :	16.3;	77800 :	1.2999999999999998;	77809 :	0.3;
	77815 :	5.8;	77818 :	6.199999999999999;	77820 :	0.9;	77870 :	3.8000000000000003;	77871 :	5.4;	77872 :	2.0;	77877 :	2.5;	77883 :	8.2;	77887 :	1.4;	77897 :	3.8;
	77910 :	7.699999999999999;	77930 :	2.9;	77931 :	6.6;	77987 :	3.9;	77989 :	1.6;	78066 :	1.4;	78070 :	3.4000000000000004;	78098 :	9.7;	78144 :	2.4;	78187 :	0.6;
	78204 :	4.1000000000000005;	78205 :	2.9;	78207 :	2.1999999999999997;	78212 :	1.8;	78231 :	1.9000000000000001;	78233 :	3.7;	78242 :	2.8;	78249 :	4.1000000000000005;	78278 :	1.8;	78289 :	0.8;
	78300 :	2.4;	78344 :	3.7;	78360 :	0.3;	78388 :	0.5;	78425 :	0.3;	78461 :	1.0;	78467 :	3.7;	78478 :	1.0;	78487 :	2.0999999999999996;	78510 :	1.7;
	78579 :	0.6;	78679 :	0.3;	78692 :	1.1;	78703 :	1.8;	78726 :	0.3;	78771 :	0.8;	78903 :	0.0;	78929 :	0.2;	78974 :	0.0;	79022 :	0.0;
	79047 :	0.2;	79049 :	0.2;	79060 :	0.3;	79066 :	0.0;	79079 :	0.0;	79126 :	0.2;	79169 :	0.0;	79188 :	0.0;	79203 :	0.0;	79208 :	0.5;
	79320 :	1.3;	79358 :	1.3;	79409 :	0.3;	79460 :	0.3;	79524 :	0.4;	79701 :	0.2;	79719 :	0.3;	79968 :	0.0;	80004 :	0.0;	80020 :	0.0;
	80109 :	0.0;	80264 :	0.0;	80332 :	0.0;	80833 :	0.0;	80838 :	0.0;

Origin	1000007
	1000000 :	0.0;	1000001 :	0.0;	1000002 :	0.0;	1000003 :	5.2;	1000004 :	1.6;	1000005 :	132.5;	1000007 :	0.0;	1000008 :	0.0;	1000009 :	0.0;	1000010 :	0.0;
	1000011 :	16.7;	1000012 :	97.4;	1000013 :	0.0;	1000014 :	0.0;	1000015 :	0.0;	1000016 :	0.0;	1000017 :	0.0;	1000018 :	0.0;	1000019 :	0.0;	1000020 :	0.0;
	1000021 :	3793.3;	1000022 :	0.0;	1000023 :	34.3;	1000024 :	0.0;	1000025 :	0.0;	1000026 :	0.0;	1000027 :	28.3;	1000028 :	47.8;	1000029 :	141.2;	1000030 :	0.0;
	1000031 :	0.0;	1000032 :	39.6;	1000033 :	0.0;	1000034 :	0.0;	1000035 :	0.0;	1000036 :	5.2;	1000037 :	2906.9;	1000038 :	170.2;	1000039 :	0.0;	1000040 :	0.0;
	1000041 :	0.0;	1000042 :	0.0;	1000043 :	0.0;	1000044 :	0.0;	1000045 :	0.0;	1000046 :	0.0;	1000047 :	13.5;	1000048 :	10.3;	113707 :	2.5;	114425 :	0.0;
	114430 :	0.0;	114489 :	0.0;	114588 :	0.0;	2146236900 :	0.0;	2146237252 :	0.0;	2146237358 :	0.0;	2146237363 :	45.900000000000006;	2146237366 :	0.0;	2146237373 :	9.3;	2146237375 :	87.6;
	2146237805 :	0.0;	2146237822 :	0.0;	2146237837 :	0.0;	2146237900 :	16.1;	2146237901 :	0.0;	2146237902 :	0.0;	2146237904 :	0.0;	2146237906 :	0.0;	2146237907 :	0.0;	2146237908 :	86.8;
	2146237909 :	25.299999999999997;	2146237910 :	14.7;	2146237911 :	215.6;	2146237912 :	82.3;	2146237913 :	17.1;	2146237915 :	0.0;	2146237917 :	0.0;	2146237920 :	0.0;	2146237921 :	0.0;	2146237928 :	14.8;
	2146237929 :	5.6;	2146237930 :	0.0;	2146237931 :	0.0;	2146237932 :	38.8;	280907 :	11.1;	282361 :	0.0;	282575 :	20.599999999999998;	282586 :	8.6;	282587 :	29.9;	282599 :	158.4;
	73510 :	0.0;	73751 :	3.7;	73760 :	0.0;	73816 :	3.7;	73876 :	5.2;	73972 :	5.2;	74055 :	9.8;	74232 :	9.8;	74451 :	5.2;	74521 :	26.9;
	74723 :	24.6;	74984 :	14.8;	75006 :	26.9;	75064 :	16.9;	75131 :	16.9;	75279 :	64.5;	75318 :	14.9;	75467 :	19.8;	75533 :	4.5;	75579 :	17.1;
	75627 :	41.2;	75631 :	2.5;	75634 :	32.2;	75659 :	2.5;	75766 :	29.5;	75778 :	59.3;	75794 :	8.6;	75880 :	7.9;	75937 :	42.8;	75961 :	0.0;
	76069 :	5.6;	76072 :	0.0;	76108 :	10.4;	76138 :	34.2;	76144 :	0.0;	76153 :	21.6;	76187 :	35.6;	76243 :	113.30000000000001;	76300 :	42.8;	76316 :	42.8;
	76354 :	0.0;	76442 :	0.0;	76462 :	10.4;	76513 :	24.3;	76541 :	77.7;	76550 :	96.6;	76554 :	5.6;	76573 :	7.4;	76579 :	31.700000000000003;	76599 :	0.0;
	76604 :	29.9;	76634 :	29.9;	76655 :	0.0;	76673 :	143.8;	76712 :	77.7;	76727 :	0.0;	76732 :	77.7;	76735 :	39.5;	76759 :	0.0;	76801 :	0.0;
	76812 :	16.1;	76819 :	68.5;	76824 :	29.9;	76840 :	21.4;	76844 :	14.7;	76851 :	108.19999999999999;	76862 :	54.4;	76921 :	14.0;	76949 :	0.0;	76963 :	70.3;
	77007 :	206.0;	77022 :	0.0;	77039 :	0.0;	77056 :	16.1;	77076 :	43.9;	77104 :	11.1;	77108 :	23.6;	77110 :	11.1;	77142 :	173.2;	77166 :	15.9;
	77174 :	0.0;	77182 :	36.0;	77189 :	0.0;	77223 :	11.1;	77227 :	0.0;	77250 :	13.0;	77295 :	173.2;	77303 :	37.1;	77317 :	26.5;	77342 :	28.0;
	77377 :	0.0;	77387 :	176.1;	77398 :	273.1;	77406 :	0.0;	77433 :	0.0;	77434 :	104.3;	77450 :	0.0;	77469 :	30.7;	77481 :	757.5;	77485 :	0.0;
	77489 :	30.7;	77511 :	0.0;	77520 :	104.3;	77546 :	0.0;	77559 :	82.2;	77561 :	212.1;	77577 :	0.0;	77604 :	59.9;	77614 :	300.4;	77624 :	36.4;
	77639 :	251.3;	77669 :	0.0;	77678 :	396.5;	77688 :	36.4;	77692 :	0.0;	77700 :	0.0;	77738 :	0.0;	77742 :	36.4;	77800 :	0.0;	77809 :	0.0;
	77815 :	192.7;	77818 :	0.0;	77820 :	0.0;	77870 :	0.0;	77871 :	0.0;	77872 :	0.0;	77877 :	0.0;	77883 :	128.8;	77887 :	0.0;	77897 :	196.1;
	77910 :	280.3;	77930 :	88.4;	77931 :	180.8;	77987 :	0.0;	77989 :	0.0;	78066 :	0.0;	78070 :	0.0;	78098 :	721.9;	78144 :	0.0;	78187 :	0.0;
	78204 :	121.4;	78205 :	88.4;	78207 :	0.0;	78212 :	0.0;	78231 :	0.0;	78233 :	301.6;	78242 :	0.0;	78249 :	330.6;	78278 :	0.0;	78289 :	0.0;
	78300 :	0.0;	78344 :	301.6;	78360 :	0.0;	78388 :	0.0;	78425 :	0.0;	78461 :	0.0;	78467 :	301.6;	78478 :	0.0;	78487 :	0.0;	78510 :	0.0;
	78579 :	0.0;	78679 :	0.0;	78692 :	0.0;	78703 :	0.0;	78726 :	0.0;	78771 :	0.0;	78903 :	668.2;	78929 :	0.0;	78974 :	0.0;	79022 :	0.0;
	79047 :	0.0;	79049 :	0.0;	79060 :	0.0;	79066 :	0.0;	79079 :	0.0;	79126 :	0.0;	79169 :	0.0;	79188 :	158.4;	79203 :	0.0;	79208 :	0.0;
	79320 :	0.0;	79358 :	0.0;	79409 :	0.0;	79460 :	0.0;	79524 :	0.0;	79701 :	0.0;	79719 :	0.0;	79968 :	0.0;	80004 :	0.0;	80020 :	0.0;
	80109 :	0.0;	80264 :	0.0;	80332 :	0.0;	80833 :	0.0;	80838 :	0.0;

Origin	1000008
	1000000 :	0.0;	1000001 :	0.0;	1000002 :	0.0;	1000003 :	0.0;	1000004 :	0.0;	1000005 :	0.0;	1000007 :	0.0;	1000008 :	0.0;	1000009 :	0.0;	1000010 :	10.2;